ipss.QA/testData/psse/200busV30-peak_1.raw
0,   100.00          / PSS/E-30.3    SAT, AUG 11 2007  18:07
                               100.0

    2,'BUS002  ', 500.0000,1,     0.000,     0.000,   1,   1,0.99196, -29.9272,   1
    3,'BUS003  ', 345.0000,1,     0.000,     0.000,   1,   1,0.99205, -20.9651,   1
    4,'BUS004  ',  20.0000,2,     0.000,     0.000,   1,   1,1.05000, -23.5555,   1
    5,'BUS005  ', 345.0000,1,     0.000,     0.000,   1,   1,1.05629,  -0.0658,   1
    6,'BUS006  ',  22.0000,2,     0.000,     0.000,   1,   1,1.05500,   5.9796,   1
    7,'BUS007  ', 500.0000,1,     0.000, -1000.000,   1,   1,1.03449, -11.4842,   1
    8,'BUS008  ', 345.0000,1,     0.000,   -80.000,   1,   1,1.02422,  -9.0648,   1
    9,'BUS009  ',  22.0000,2,     0.000,     0.000,   1,   1,1.05000,  -2.5757,   1
   10,'BUS010  ', 230.0000,1,     0.000,     0.000,   1,   1,1.02237,  -9.5923,   1
   11,'BUS011  ',  20.0000,2,     0.000,     0.000,   1,   1,1.02000,  15.6867,   1
   12,'BUS012  ', 500.0000,1,     0.000,  -190.000,   1,   1,1.06204, -23.2894,   1
   13,'BUS013  ',  26.0000,2,     0.000,     0.000,   1,   1,1.00000, -17.1076,   1
   14,'BUS014  ', 500.0000,1,     0.000,  -391.000,   1,   1,1.05384, -24.6002,   1
   15,'BUS015  ',  24.0000,2,     0.000,     0.000,   1,   1,1.00000, -21.7263,   1
   16,'BUS016  ', 500.0000,1,     0.000,  -700.000,   1,   1,1.04597, -29.3215,   1
   17,'BUS017  ', 345.0000,1,     0.000,   390.000,   1,   1,1.06171,  -9.0615,   1
   18,'BUS018  ',  22.0000,2,     0.000,     0.000,   1,   1,1.03000,  -6.2327,   1
   19,'BUS019  ', 500.0000,1,     0.000,  -427.000,   1,   1,1.04443, -29.2602,   1
   20,'BUS020  ', 500.0000,1,     0.000,     0.000,   1,   1,1.06350, -21.7382,   1
   21,'BUS021  ', 500.0000,1,     0.000,     0.000,   1,   1,1.04449, -26.1864,   1
   22,'BUS022  ', 500.0000,1,     0.000,     0.000,   1,   1,1.03779, -21.3773,   1
   23,'BUS023  ', 500.0000,1,     0.000,     0.000,   1,   1,1.01432, -31.2353,   1
   24,'BUS024  ', 500.0000,1,     0.000,     0.000,   1,   1,1.04176, -23.1582,   1
   25,'BUS025  ', 500.0000,1,     0.000,     0.000,   1,   1,1.03032, -30.7231,   1
   26,'BUS026  ', 500.0000,1,     0.000,     0.000,   1,   1,1.04614, -16.1612,   1
   27,'BUS027  ', 500.0000,1,     0.000,     0.000,   1,   1,1.00836, -40.9363,   1
   28,'BUS028  ', 500.0000,1,     0.000,     0.000,   1,   1,1.02771,  -9.8018,   1
   29,'BUS029  ', 500.0000,1,     0.000,     0.000,   1,   1,1.05461, -26.9836,   1
   30,'BUS030  ',  20.0000,2,     0.000,     0.000,   1,   1,1.00000,  37.8240,   1
   31,'BUS031  ', 500.0000,1,     0.000,     0.000,   1,   1,1.03572,  34.0311,   1
   32,'BUS032  ', 500.0000,1,     0.000,     0.000,   1,   1,1.07831,  62.3464,   1
   33,'BUS033  ', 230.0000,1,     0.000,     0.000,   1,   1,0.97835,  66.9375,   1
   34,'BUS034  ', 230.0000,1,     0.000,     0.000,   1,   1,1.00112,  75.9874,   1
   35,'BUS035  ',  20.0000,2,     0.000,     0.000,   1,   1,1.02000,  80.9086,   1
   36,'BUS036  ',  22.0000,2,     0.000,     0.000,   1,   1,1.05000,   0.5535,   1
   37,'BUS037  ', 500.0000,1,     0.000,   200.000,   1,   1,1.02563, -41.5985,   1
   38,'BUS038  ', 500.0000,1,     0.000,     0.000,   1,   1,1.06882, -45.9235,   1
   39,'BUS039  ', 230.0000,1,     0.000,     0.000,   1,   1,1.03935, -47.0673,   1
   40,'BUS040  ',  18.0000,2,     0.000,     0.000,   1,   1,1.05000, -45.8297,   1
   41,'BUS041  ', 230.0000,1,     0.000,     0.000,   1,   1,1.02137, -50.6989,   1
   42,'BUS042  ', 230.0000,1,     0.000,     0.000,   1,   1,1.04536, -50.5145,   1
   43,'BUS043  ',  18.0000,2,     0.000,     0.000,   1,   1,1.05000, -47.4602,   1
   44,'BUS044  ', 345.0000,1,     0.000,   430.000,   1,   1,1.05682, -10.3813,   1
   45,'BUS045  ',  26.0000,2,     0.000,     0.000,   1,   1,1.05000,  -5.7528,   1
   46,'BUS046  ', 230.0000,1,     0.000,     0.000,   1,   1,1.03341, -47.3695,   1
   47,'BUS047  ',  11.5000,2,     0.000,     0.000,   1,   1,1.05000, -47.1043,   1
   48,'BUS048  ', 230.0000,1,     0.000,     0.000,   1,   1,1.03155, -47.5755,   1
   49,'BUS049  ', 500.0000,1,     0.000,   -80.000,   1,   1,1.05700, -45.1442,   1
   50,'BUS050  ', 230.0000,1,     0.000,     0.000,   1,   1,1.02612, -51.6478,   1
   51,'BUS051  ', 138.0000,1,     0.000,     0.000,   1,   1,1.02959, -51.7031,   1
   52,'BUS052  ', 287.0000,1,     0.000,     0.000,   1,   1,1.03062, -50.5107,   1
   53,'BUS053  ', 287.0000,1,     0.000,     0.000,   1,   1,1.03062, -50.5107,   1
   54,'BUS054  ', 230.0000,1,     0.000,     0.000,   1,   1,1.02702, -51.9079,   1
   55,'BUS055  ', 230.0000,1,     0.000,     0.000,   1,   1,1.02082, -49.8137,   1
   56,'BUS056  ', 500.0000,1,     0.000,     0.000,   1,   1,1.02946, -47.3896,   1
   57,'BUS057  ', 230.0000,1,     0.000,     0.000,   1,   1,1.02667, -51.6812,   1
   58,'BUS058  ', 230.0000,1,     0.000,     0.000,   1,   1,1.02368, -50.9617,   1
   59,'BUS059  ', 230.0000,1,     0.000,     0.000,   1,   1,1.02912, -48.6585,   1
   60,'BUS060  ', 230.0000,1,     0.000,  2146.000,   1,   1,1.03784, -46.8898,   1
   61,'BUS061  ', 230.0000,1,     0.000,     0.000,   1,   1,1.02179, -47.9940,   1
   62,'BUS062  ', 230.0000,1,     0.000,     0.000,   1,   1,1.02614, -48.7761,   1
   63,'BUS063  ', 287.0000,1,     0.000,  -108.000,   1,   1,1.03043, -44.0411,   1
   64,'BUS064  ', 500.0000,1,     0.000,     0.000,   1,   1,1.02837, -41.9395,   1
   65,'BUS065  ',  20.0000,2,     0.000,     0.000,   1,   1,1.00000,  68.9916,   1
   66,'BUS066  ', 500.0000,1,     0.000,     0.000,   1,   1,1.04495,  60.5944,   1
   67,'BUS067  ', 115.0000,1,     0.000,     0.000,   1,   1,1.02828, -10.8452,   1
   68,'BUS068  ', 230.0000,1,     0.000,   576.850,   1,   1,1.02658,  -8.2957,   1
   69,'BUS069  ', 500.0000,1,     0.000,     0.000,   1,   1,1.05332,  -7.4927,   1
   70,'BUS070  ',  13.8000,2,     0.000,     0.000,   1,   1,1.00000,  -2.3783,   1
   71,'BUS071  ', 230.0000,1,     0.000,   500.000,   1,   1,1.02280,  -8.6936,   1
   72,'BUS072  ', 500.0000,1,     0.000,   400.000,   1,   1,1.05341,  -7.5823,   1
   73,'BUS073  ', 500.0000,1,     0.000,     0.000,   1,   1,1.05367,  26.3470,   1
   74,'BUS074  ', 500.0000,1,     0.000,     0.000,   1,   1,0.98636,  46.9212,   1
   75,'BUS075  ', 500.0000,1,     0.000,     0.000,   1,   1,1.02010,  13.0313,   1
   76,'BUS076  ', 500.0000,1,     0.000,  1019.300,   1,   1,1.05373,  -5.8254,   1
   77,'BUS077  ',  13.8000,3,     0.000,     0.000,   1,   1,1.00000,   0.0000,   1
   78,'BUS078  ', 500.0000,1,     0.000,  1000.000,   1,   1,1.00917,  10.4025,   1
   79,'BUS079  ',  20.0000,2,     0.000,     0.000,   1,   1,1.02000,  39.4433,   1
   80,'BUS080  ', 500.0000,1,     0.000,  1000.000,   1,   1,1.04056,  25.1241,   1
   81,'BUS081  ', 500.0000,1,     0.000,   -20.000,   1,   1,1.03972, -17.0021,   1
   82,'BUS082  ', 500.0000,1,     0.000,  -650.000,   1,   1,1.05674, -13.8256,   1
   83,'BUS083  ', 500.0000,1,     0.000,  -110.000,   1,   1,1.05067, -21.1614,   1
   84,'BUS084  ', 500.0000,1,     0.000,  -700.000,   1,   1,1.06955,  -5.8160,   1
   85,'BUS085  ', 345.0000,1,     0.000,  -500.000,   1,   1,1.04672,  -3.1421,   1
   86,'BUS086  ', 500.0000,1,     0.000,     0.000,   1,   1,1.05862, -15.7538,   1
   87,'BUS087  ', 500.0000,1,     0.000,     0.000,   1,   1,1.07328, -16.4628,   1
   88,'BUS088  ', 500.0000,1,     0.000,     0.000,   1,   1,1.04659, -12.0027,   1
   89,'BUS089  ', 500.0000,1,     0.000,     0.000,   1,   1,1.05449, -11.4253,   1
   90,'BUS090  ', 500.0000,1,     0.000,     0.000,   1,   1,1.06005, -17.4154,   1
   91,'BUS091  ', 500.0000,1,     0.000,     0.000,   1,   1,1.07510, -19.2996,   1
   92,'BUS092  ', 500.0000,1,     0.000,     0.000,   1,   1,1.05798, -13.9253,   1
   93,'BUS093  ', 500.0000,1,     0.000,     0.000,   1,   1,1.06406, -20.0839,   1
   94,'BUS094  ', 500.0000,1,     0.000,     0.000,   1,   1,1.06008, -14.6948,   1
   95,'BUS095  ', 500.0000,1,     0.000,     0.000,   1,   1,1.07487, -19.6024,   1
   96,'BUS096  ', 500.0000,1,     0.000,     0.000,   1,   1,1.05768, -13.9265,   1
   97,'BUS097  ', 500.0000,1,     0.000,     0.000,   1,   1,1.06361, -20.4301,   1
   98,'BUS098  ', 500.0000,1,     0.000,     0.000,   1,   1,1.05939, -14.7371,   1
   99,'BUS099  ', 500.0000,1,     0.000,     0.000,   1,   1,0.98026,   4.3053,   1
  100,'BUS100  ', 200.0000,1,     0.000,     0.000,   1,   1,1.05716, -39.4965,   1
  101,'BUS101  ', 200.0000,1,     0.000,   200.000,   1,   1,1.02070, -43.2255,   1
  102,'BUS102  ', 500.0000,1,     0.000,     0.000,   1,   1,1.04633, -42.7469,   1
  103,'BUS103  ',  25.0000,2,     0.000,     0.000,   1,   1,1.00000, -34.7364,   1
  104,'BUS104  ', 500.0000,1,     0.000,   -91.000,   1,   1,1.03409, -46.4366,   1
  105,'BUS105  ', 200.0000,1,     0.000,     0.000,   1,   1,1.04674, -43.0796,   1
  106,'BUS106  ', 200.0000,1,     0.000,     0.000,   1,   1,1.05370, -42.0519,   1
  107,'BUS107  ', 500.0000,1,     0.000,     0.000,   1,   1,1.03208, -48.8503,   1
  108,'BUS108  ', 500.0000,1,     0.000,  -427.000,   1,   1,1.03893, -48.2642,   1
  109,'BUS109  ', 200.0000,1,     0.000,  -330.000,   1,   1,1.10058, -55.2832,   1
  110,'BUS110  ', 500.0000,1,     0.000,     0.000,   1,   1,1.02915, -49.1241,   1
  111,'BUS111  ', 500.0000,1,     0.000,     0.000,   1,   1,1.04661, -28.5874,   1
  112,'BUS112  ',  20.0000,2,     0.000,     0.000,   1,   1,1.00000, -20.1325,   1
  113,'BUS113  ', 200.0000,1,     0.000,   -50.000,   1,   1,1.08291, -30.3955,   1
  114,'BUS114  ', 500.0000,1,     0.000,   -91.000,   1,   1,1.03076, -26.6344,   1
  115,'BUS115  ', 500.0000,1,     0.000,   -91.000,   1,   1,1.02021, -30.2541,   1
  116,'BUS116  ',  20.0000,2,     0.000,     0.000,   1,   1,1.00000, -35.2615,   1
  117,'BUS117  ', 200.0000,1,     0.000,  -400.000,   1,   1,1.07599, -39.6061,   1
  118,'BUS118  ',  20.0000,2,     0.000,     0.000,   1,   1,1.03000, -28.2762,   1
  119,'BUS119  ', 500.0000,1,     0.000,  1700.000,   1,   1,1.01718, -36.0976,   1
  120,'BUS120  ', 500.0000,1,     0.000,     0.000,   1,   1,1.05009, -21.9110,   1
  121,'BUS121  ', 500.0000,1,     0.000,     0.000,   1,   1,1.02892, -35.1701,   1
  122,'BUS122  ', 500.0000,1,     0.000,     0.000,   1,   1,1.03735, -28.3571,   1
  123,'BUS123  ', 500.0000,1,     0.000,     0.000,   1,   1,1.00555, -43.1366,   1
  124,'BUS124  ', 500.0000,1,     0.000,     0.000,   1,   1,1.02251, -21.4863,   1
  125,'BUS125  ', 500.0000,1,     0.000,     0.000,   1,   1,1.02413, -33.6728,   1
  126,'BUS126  ', 500.0000,1,     0.000,     0.000,   1,   1,1.02251, -21.4863,   1
  127,'BUS127  ', 500.0000,1,     0.000,     0.000,   1,   1,1.02413, -33.6728,   1
  128,'BUS128  ', 500.0000,1,     0.000,     0.000,   1,   1,1.00684, -24.9101,   1
  129,'BUS129  ', 500.0000,1,     0.000,     0.000,   1,   1,1.02264, -41.3056,   1
  130,'BUS130  ', 500.0000,1,     0.000,     0.000,   1,   1,1.01464, -26.1962,   1
  131,'BUS131  ', 500.0000,1,     0.000,     0.000,   1,   1,1.02036, -38.1004,   1
  132,'BUS132  ', 500.0000,1,     0.000,     0.000,   1,   1,1.00841, -33.5978,   1
  133,'BUS133  ', 500.0000,1,     0.000,     0.000,   1,   1,1.04157, -52.4041,   1
  134,'BUS134  ', 500.0000,1,     0.000,     0.000,   1,   1,1.00627, -31.5989,   1
  135,'BUS135  ', 500.0000,1,     0.000,     0.000,   1,   1,1.04086, -51.1926,   1
  136,'BUS136  ', 500.0000,1,     0.000,     0.000,   1,   1,1.03075, -43.2566,   1
  137,'BUS137  ', 230.0000,1,     0.000,     0.000,   1,   1,1.01985, -52.4698,   1
  138,'BUS138  ',  20.0000,2,     0.000,     0.000,   1,   1,1.02000, -24.8465,   1
  139,'BUS139  ', 500.0000,1,     0.000,  -800.000,   1,   1,1.02850, -32.1262,   1
  140,'BUS140  ',  20.0000,2,     0.000,     0.000,   1,   1,1.05000, -49.6555,   1
  141,'BUS141  ', 230.0000,1,     0.000,     0.000,   1,   1,1.04081, -55.4620,   1
  142,'BUS142  ', 500.0000,1,     0.000,     0.000,   1,   1,1.04070, -45.7456,   1
  143,'BUS143  ', 230.0000,1,     0.000,     0.000,   1,   1,1.02614, -54.7316,   1
  144,'BUS144  ',  20.0000,2,     0.000,     0.000,   1,   1,1.05000, -45.1744,   1
  145,'BUS145  ', 500.0000,1,     0.000,   600.000,   1,   1,1.03664, -49.4292,   1
  146,'BUS146  ', 230.0000,1,     0.000,     0.000,   1,   1,1.03596, -49.8754,   1
  147,'BUS147  ', 500.0000,1,     0.000,  -196.000,   1,   1,1.05890, -28.3926,   1
  148,'BUS148  ',  22.0000,2,     0.000,     0.000,   1,   1,1.05000, -19.9842,   1
  149,'BUS149  ',  20.0000,2,     0.000,     0.000,   1,   1,1.02000, -39.5269,   1
  150,'BUS150  ', 230.0000,1,     0.000,     0.000,   1,   1,1.01301, -51.4052,   1
  151,'BUS151  ', 500.0000,1,     0.000,     0.000,   1,   1,1.03468, -49.8359,   1
  152,'BUS152  ', 500.0000,1,     0.000,     0.000,   1,   1,1.03130, -47.5152,   1
  153,'BUS153  ', 500.0000,1,     0.000,     0.000,   1,   1,1.05358, -48.7090,   1
  154,'BUS154  ', 230.0000,1,     0.000,   500.000,   1,   1,1.01230, -51.3765,   1
  155,'BUS155  ', 345.0000,1,     0.000,   -60.000,   1,   1,1.05668,  -7.9538,   1
  156,'BUS156  ', 345.0000,1,     0.000,     0.000,   1,   1,1.06289,  -8.0639,   1
  157,'BUS157  ', 230.0000,1,     0.000,     0.000,   1,   1,1.06188,  -8.5646,   1
  158,'BUS158  ', 345.0000,1,     0.000,  -220.000,   1,   1,1.04512,  -0.8583,   1
  159,'BUS159  ',  20.0000,2,     0.000,     0.000,   1,   1,1.05500,   3.8045,   1
  160,'BUS160  ', 345.0000,1,     0.000,     0.000,   1,   1,1.06896,  -8.0952,   1
  161,'BUS161  ', 230.0000,1,     0.000,     0.000,   1,   1,1.04672,  -3.7375,   1
  162,'BUS162  ',  20.0000,2,     0.000,     0.000,   1,   1,1.00000,  -0.8985,   1
  163,'BUS163  ', 345.0000,1,     0.000,   -18.000,   1,   1,1.04987,  -7.2178,   1
  164,'BUS164  ', 345.0000,1,     0.000,     0.000,   1,   1,1.05639,  -6.3575,   1
  165,'BUS165  ', 345.0000,1,     0.000,     0.000,   1,   1,1.04747,  -6.6825,   1
  166,'BUS166  ', 345.0000,1,     0.000,   -50.000,   1,   1,1.06241,  -6.4439,   1
  167,'BUS167  ', 345.0000,1,     0.000,     0.000,   1,   1,1.05450,  -8.6620,   1
  168,'BUS168  ', 500.0000,1,     0.000,     0.000,   1,   1,1.05806, -16.9110,   1
  169,'BUS169  ', 500.0000,1,     0.000,     0.000,   1,   1,1.02508, -31.0576,   1
  170,'BUS170  ', 500.0000,1,     0.000,     0.000,   1,   1,1.05907, -16.0138,   1
  171,'BUS171  ', 500.0000,1,     0.000,     0.000,   1,   1,1.02664, -31.0918,   1
  172,'BUS172  ', 500.0000,1,     0.000,     0.000,   1,   1,1.04281, -15.3974,   1
  173,'BUS173  ', 500.0000,1,     0.000,     0.000,   1,   1,1.04954, -34.2757,   1
  174,'BUS174  ', 500.0000,1,     0.000,     0.000,   1,   1,1.01172, -47.8895,   1
  175,'BUS175  ', 500.0000,1,     0.000,     0.000,   1,   1,1.06162, -49.0587,   1
  176,'BUS176  ', 500.0000,1,     0.000,     0.000,   1,   1,1.01122, -47.8851,   1
  177,'BUS177  ', 500.0000,1,     0.000,     0.000,   1,   1,1.06185, -49.0592,   1
  178,'BUS178  ', 500.0000,1,     0.000,     0.000,   1,   1,1.01019, -47.8673,   1
  179,'BUS179  ', 500.0000,1,     0.000,     0.000,   1,   1,1.06350, -49.0405,   1
  180,'BUS180  ', 500.0000,1,     0.000,  -220.000,   1,   1,1.05047,  -7.4763,   1
  181,'BUS181  ', 500.0000,1,     0.000,     0.000,   1,   1,1.03369,  -0.8024,   1
  182,'BUS182  ', 500.0000,1,     0.000,     0.000,   1,   1,1.01284,   8.8339,   1
  183,'BUS183  ', 500.0000,1,     0.000,   250.000,   1,   1,1.05096,  22.1696,   1
  184,'BUS184  ', 230.0000,1,     0.000,     0.000,   1,   1,1.05193,  21.3138,   1
  185,'BUS185  ', 230.0000,1,     0.000,     0.000,   1,   1,1.04040,  13.6395,   1
  186,'BUS186  ', 345.0000,1,     0.000,  -400.000,   1,   1,1.04930,  -5.8738,   1
  187,'BUS187  ', 230.0000,1,     0.000,     0.000,   1,   1,1.05204,  -6.5928,   1
  188,'BUS188  ', 230.0000,1,     0.000,     0.000,   1,   1,1.01378, -15.0613,   1
  189,'BUS189  ', 230.0000,1,     0.000,     0.000,   1,   1,1.05261,  -5.1877,   1
  190,'BUS190  ', 345.0000,1,     0.000,  -100.000,   1,   1,1.04866,  -4.4775,   1
  191,'BUS191  ', 345.0000,1,     0.000,     0.000,   1,   1,1.07635,  -1.6751,   1
  192,'BUS192  ', 345.0000,1,     0.000,     0.000,   1,   1,1.06306,  -9.5392,   1
  193,'BUS193  ', 230.0000,1,     0.000,     0.000,   1,   1,1.06501, -10.2899,   1
  194,'BUS194  ', 230.0000,1,     0.000,     0.000,   1,   1,1.06039, -22.5597,   1
  195,'BUS195  ', 345.0000,1,     0.000,     0.000,   1,   1,0.99180, -31.4112,   1
  196,'BUS196  ', 500.0000,1,     0.000,     0.000,   1,   1,1.00859,  -2.7933,   1
  197,'BUS197  ', 500.0000,1,     0.000,     0.000,   1,   1,1.03046,  -8.8075,   1
  198,'BUS198  ',  13.8000,2,     0.000,     0.000,   1,   1,1.00000,  50.2923,   1
  199,'BUS199  ',  26.0000,2,     0.000,     0.000,   1,   1,1.05000,  32.9077,   1
  200,'BUS200  ', 345.0000,1,     0.000,  -200.000,   1,   1,1.07792, -12.9252,   1
  201,'BUS201  ', 500.0000,1,     0.000,     0.000,   1,   1,1.05873, -11.6505,   1
0 / END OF BUS DATA, BEGIN LOAD DATA
     2,'BL',1,   1,   1,  1750.000,   -56.000,     0.000,     0.000,     0.000,     0.000,   1
     4,'BL',1,   1,   1,   100.000,     0.000,     0.000,     0.000,     0.000,     0.000,   1
     5,'BL',1,   1,   1,  2350.000,  -100.000,     0.000,     0.000,     0.000,     0.000,   1
     6,'BL',1,   1,   1,   100.000,     0.000,     0.000,     0.000,     0.000,     0.000,   1
     8,'BL',1,   1,   1,   239.000,    20.000,     0.000,     0.000,     0.000,     0.000,   1
     9,'BL',1,   1,   1,   100.000,     0.000,     0.000,     0.000,     0.000,     0.000,   1
    10,'BL',1,   1,   1,   139.700,    23.800,     0.000,     0.000,     0.000,     0.000,   1
    11,'BL',1,   1,   1,   100.000,     0.000,     0.000,     0.000,     0.000,     0.000,   1
    12,'BL',1,   1,   1,    90.000,    70.000,     0.000,     0.000,     0.000,     0.000,   1
    13,'BL',1,   1,   1,   100.000,     0.000,     0.000,     0.000,     0.000,     0.000,   1
    15,'BL',1,   1,   1,   100.000,     0.000,     0.000,     0.000,     0.000,     0.000,   1
    16,'BL',1,   1,   1,   793.400,   207.000,     0.000,     0.000,     0.000,     0.000,   1
    17,'BL',1,   1,   1,   840.000,     5.000,     0.000,     0.000,     0.000,     0.000,   1
    18,'BL',1,   1,   1,   100.000,     0.000,     0.000,     0.000,     0.000,     0.000,   1
    19,'BL',1,   1,   1,   617.000,   120.000,     0.000,     0.000,     0.000,     0.000,   1
    30,'BL',1,   1,   1,   100.000,     0.000,     0.000,     0.000,     0.000,     0.000,   1
    31,'BL',1,   1,   1,  4400.000,  1000.000,     0.000,     0.000,     0.000,     0.000,   1
    34,'BL',1,   1,   1,  3600.000,   700.000,     0.000,     0.000,     0.000,     0.000,   1
    35,'BL',1,   1,   1,   100.000,     0.000,     0.000,     0.000,     0.000,     0.000,   1
    36,'BL',1,   1,   1,   100.000,     0.000,     0.000,     0.000,     0.000,     0.000,   1
    37,'BL',1,   1,   1, -1862.000,   971.000,     0.000,     0.000,     0.000,     0.000,   1
    40,'BL',1,   1,   1,   100.000,     0.000,     0.000,     0.000,     0.000,     0.000,   1
    41,'BL',1,   1,   1,   135.000,    27.000,     0.000,     0.000,     0.000,     0.000,   1
    43,'BL',1,   1,   1,   100.000,     0.000,     0.000,     0.000,     0.000,     0.000,   1
    44,'BL',1,   1,   1,  2053.000,   907.100,     0.000,     0.000,     0.000,     0.000,   1
    45,'BL',1,   1,   1,   100.000,     0.000,     0.000,     0.000,     0.000,     0.000,   1
    46,'BL',1,   1,   1,   -72.800,   -17.000,     0.000,     0.000,     0.000,     0.000,   1
    47,'BL',1,   1,   1,   100.000,     0.000,     0.000,     0.000,     0.000,     0.000,   1
    48,'BL',1,   1,   1,   121.000,    25.000,     0.000,     0.000,     0.000,     0.000,   1
    50,'BL',1,   1,   1,   320.000,    65.000,     0.000,     0.000,     0.000,     0.000,   1
    51,'BL',1,   1,   1,   237.200,   -63.200,     0.000,     0.000,     0.000,     0.000,   1
    54,'BL',1,   1,   1,   138.000,    28.000,     0.000,     0.000,     0.000,     0.000,   1
    55,'BL',1,   1,   1,   807.800,   132.100,     0.000,     0.000,     0.000,     0.000,   1
    57,'BL',1,   1,   1,   117.000,    24.000,     0.000,     0.000,     0.000,     0.000,   1
    58,'BL',1,   1,   1,   121.000,    25.000,     0.000,     0.000,     0.000,     0.000,   1
    59,'BL',1,   1,   1,   887.700,    -6.200,     0.000,     0.000,     0.000,     0.000,   1
    60,'BL',1,   1,   1, -2771.000,  1654.000,     0.000,     0.000,     0.000,     0.000,   1
    61,'BL',1,   1,   1,   401.000,    80.600,     0.000,     0.000,     0.000,     0.000,   1
    62,'BL',1,   1,   1,   205.200,    17.600,     0.000,     0.000,     0.000,     0.000,   1
    63,'BL',1,   1,   1,  -129.000,    32.200,     0.000,     0.000,     0.000,     0.000,   1
    65,'BL',1,   1,   1,   100.000,     0.000,     0.000,     0.000,     0.000,     0.000,   1
    66,'BL',1,   1,   1,  1700.000,   300.000,     0.000,     0.000,     0.000,     0.000,   1
    67,'BL',1,   1,   1,   160.000,    31.250,     0.000,     0.000,     0.000,     0.000,   1
    68,'BL',1,   1,   1,   -67.500,   160.000,     0.000,     0.000,     0.000,     0.000,   1
    69,'BL',1,   1,   1,   -44.200,    22.000,     0.000,     0.000,     0.000,     0.000,   1
    70,'BL',1,   1,   1,   100.000,     0.000,     0.000,     0.000,     0.000,     0.000,   1
    71,'BL',1,   1,   1,  2137.000,  1381.000,     0.000,     0.000,     0.000,     0.000,   1
    73,'BL',1,   1,   1,     0.000,     0.000,     0.000,     0.000,     0.000,     0.000,   1
    75,'BL',1,   1,   1,  1284.000,   234.000,     0.000,     0.000,     0.000,     0.000,   1
    76,'BL',1,   1,   1,  3200.000,  1100.000,     0.000,     0.000,     0.000,     0.000,   1
    77,'BL',1,   1,   1,   100.000,     0.000,     0.000,     0.000,     0.000,     0.000,   1
    78,'BL',1,   1,   1,  3500.000,   600.000,     0.000,     0.000,     0.000,     0.000,   1
    79,'BL',1,   1,   1,   100.000,     0.000,     0.000,     0.000,     0.000,     0.000,   1
    80,'BL',1,   1,   1,  4000.000,   300.000,     0.000,     0.000,     0.000,     0.000,   1
    82,'BL',1,   1,   1,   -66.600,   -97.000,     0.000,     0.000,     0.000,     0.000,   1
    83,'BL',1,   1,   1,  -339.000,  -119.000,     0.000,     0.000,     0.000,     0.000,   1
    85,'BL',1,   1,   1,   610.000,  -414.000,     0.000,     0.000,     0.000,     0.000,   1
   100,'BL',1,   1,   1,   -43.300,    20.000,     0.000,     0.000,     0.000,     0.000,   1
   101,'BL',1,   1,   1,  1210.400,   323.000,     0.000,     0.000,     0.000,     0.000,   1
   102,'BL',1,   1,   1,    50.000,    25.000,     0.000,     0.000,     0.000,     0.000,   1
   103,'BL',1,   1,   1,   100.000,     0.000,     0.000,     0.000,     0.000,     0.000,   1
   104,'BL',1,   1,   1,   305.000,    -7.600,     0.000,     0.000,     0.000,     0.000,   1
   105,'BL',1,   1,   1,    27.500,    -0.100,     0.000,     0.000,     0.000,     0.000,   1
   106,'BL',1,   1,   1,     8.010,     0.000,     0.000,     0.000,     0.000,     0.000,   1
   107,'BL',1,   1,   1,   265.000,    14.000,     0.000,     0.000,     0.000,     0.000,   1
   108,'BL',1,   1,   1,    55.600,  -329.000,     0.000,     0.000,     0.000,     0.000,   1
   109,'BL',1,   1,   1,  1777.600,   232.600,     0.000,     0.000,     0.000,     0.000,   1
   110,'BL',1,   1,   1,    40.000,    21.500,     0.000,     0.000,     0.000,     0.000,   1
   111,'BL',1,   1,   1,  -189.000,    61.500,     0.000,     0.000,     0.000,     0.000,   1
   112,'BL',1,   1,   1,   100.000,     0.000,     0.000,     0.000,     0.000,     0.000,   1
   113,'BL',1,   1,   1,   148.000,     0.000,     0.000,     0.000,     0.000,     0.000,   1
   115,'BL',1,   1,   1,    -0.700,   118.500,     0.000,     0.000,     0.000,     0.000,   1
   116,'BL',1,   1,   1,   100.000,     0.000,     0.000,     0.000,     0.000,     0.000,   1
   117,'BL',1,   1,   1,   884.000,    54.800,     0.000,     0.000,     0.000,     0.000,   1
   118,'BL',1,   1,   1,   100.000,     0.000,     0.000,     0.000,     0.000,     0.000,   1
   119,'BL',1,   1,   1,  4661.000,  3091.000,     0.000,     0.000,     0.000,     0.000,   1
   136,'BL',1,   1,   1,   856.000,    19.600,     0.000,     0.000,     0.000,     0.000,   1
   137,'BL',1,   1,   1,   175.000,    18.000,     0.000,     0.000,     0.000,     0.000,   1
   138,'BL',1,   1,   1,   100.000,     0.000,     0.000,     0.000,     0.000,     0.000,   1
   139,'BL',1,   1,   1,   902.300,   -11.400,     0.000,     0.000,     0.000,     0.000,   1
   140,'BL',1,   1,   1,   100.000,     0.000,     0.000,     0.000,     0.000,     0.000,   1
   141,'BL',1,   1,   1,  3191.000,   630.000,     0.000,     0.000,     0.000,     0.000,   1
   142,'BL',1,   1,   1,   204.200,   -28.200,     0.000,     0.000,     0.000,     0.000,   1
   143,'BL',1,   1,   1,   377.400,    64.500,     0.000,     0.000,     0.000,     0.000,   1
   144,'BL',1,   1,   1,   100.000,     0.000,     0.000,     0.000,     0.000,     0.000,   1
   145,'BL',1,   1,   1,  3098.000,  1189.000,     0.000,     0.000,     0.000,     0.000,   1
   148,'BL',1,   1,   1,   100.000,     0.000,     0.000,     0.000,     0.000,     0.000,   1
   149,'BL',1,   1,   1,   100.000,     0.000,     0.000,     0.000,     0.000,     0.000,   1
   150,'BL',1,   1,   1,  3118.000,    78.000,     0.000,     0.000,     0.000,     0.000,   1
   151,'BL',1,   1,   1,  1230.000,    72.800,     0.000,     0.000,     0.000,     0.000,   1
   152,'BL',1,   1,   1,   406.000,    41.000,     0.000,     0.000,     0.000,     0.000,   1
   154,'BL',1,   1,   1,  1066.000,   -10.800,     0.000,     0.000,     0.000,     0.000,   1
   155,'BL',1,   1,   1,   457.700,    81.700,     0.000,     0.000,     0.000,     0.000,   1
   156,'BL',1,   1,   1,    33.900,    11.900,     0.000,     0.000,     0.000,     0.000,   1
   157,'BL',1,   1,   1,   148.000,    -7.900,     0.000,     0.000,     0.000,     0.000,   1
   158,'BL',1,   1,   1,   116.100,    38.400,     0.000,     0.000,     0.000,     0.000,   1
   159,'BL',1,   1,   1,   100.000,     0.000,     0.000,     0.000,     0.000,     0.000,   1
   160,'BL',1,   1,   1,   -62.000,    12.800,     0.000,     0.000,     0.000,     0.000,   1
   161,'BL',1,   1,   1,   255.000,   100.000,     0.000,     0.000,     0.000,     0.000,   1
   162,'BL',1,   1,   1,   100.000,     0.000,     0.000,     0.000,     0.000,     0.000,   1
   164,'BL',1,   1,   1,    31.600,    11.500,     0.000,     0.000,     0.000,     0.000,   1
   165,'BL',1,   1,   1,   141.200,    71.400,     0.000,     0.000,     0.000,     0.000,   1
   166,'BL',1,   1,   1,   379.000,   -43.000,     0.000,     0.000,     0.000,     0.000,   1
   167,'BL',1,   1,   1,   185.000,    78.500,     0.000,     0.000,     0.000,     0.000,   1
   188,'BL',1,   1,   1,   300.000,    60.000,     0.000,     0.000,     0.000,     0.000,   1
   196,'BL',1,   1,   1,  2000.000,   100.000,     0.000,     0.000,     0.000,     0.000,   1
   197,'BL',1,   1,   1,  1000.000,   300.000,     0.000,     0.000,     0.000,     0.000,   1
   198,'BL',1,   1,   1,   100.000,     0.000,     0.000,     0.000,     0.000,     0.000,   1
   199,'BL',1,   1,   1,   100.000,     0.000,     0.000,     0.000,     0.000,     0.000,   1
0 / END OF LOAD DATA, BEGIN GENERATOR DATA
     4,'1 ',   800.000,   104.262,   300.000,  -300.000,1.05000,     0,   914.000,   0.00000,   1.00000,   0.00000,   0.00000,1.00000,1,  100.0,   822.600,     0.000,   1,1.0000
     6,'1 ',  1048.000,    39.045,   400.000,  -400.000,1.05500,     0,  1488.000,   0.00000,   1.00000,   0.00000,   0.00000,1.00000,1,  100.0,  1339.200,     0.000,   1,1.0000
     9,'1 ',  2160.000,   575.612,   700.000,  -500.000,1.05000,     0,  2458.000,   0.00000,   1.00000,   0.00000,   0.00000,1.00000,1,  100.0,  2212.200,     0.000,   1,1.0000
    11,'1 ',  2050.000,    22.973,   900.000,  -900.000,1.02000,     0,  3000.000,   0.00000,   1.00000,   0.00000,   0.00000,1.00000,1,  100.0,  2700.000,     0.000,   1,1.0000
    13,'1 ',  1690.000,   335.572,   700.000,  -280.000,1.00000,     0,  3540.000,   0.00000,   1.00000,   0.00000,   0.00000,1.00000,1,  100.0,  3186.000,     0.000,   1,1.0000
    15,'1 ',  2640.000,  1235.097,  1300.000,  -900.000,1.00000,     0,  3118.000,   0.00000,   1.00000,   0.00000,   0.00000,1.00000,1,  100.0,  2806.200,     0.000,   1,1.0000
    18,'1 ',   962.000,   236.814,   300.000,  -300.000,1.03000,     0,  2054.000,   0.00000,   1.00000,   0.00000,   0.00000,1.00000,1,  100.0,  1848.600,     0.000,   1,1.0000
    30,'1 ',  4450.000,  1050.805,  4000.000, -4000.000,1.00000,     0,  9004.000,   0.00000,   1.00000,   0.00000,   0.00000,1.00000,1,  100.0,  8103.600,     0.000,   1,1.0000
    35,'1 ',  4480.000,  1151.088,  5320.000, -3500.000,1.02000,     0,  6100.000,   0.00000,   1.00000,   0.00000,   0.00000,1.00000,1,  100.0,  5490.000,     0.000,   1,1.0000
    36,'1 ',  1640.000,   124.977,   600.000,  -525.000,1.05000,     0,  1770.000,   0.00000,   1.00000,   0.00000,   0.00000,1.00000,1,  100.0,  1682.000,     0.000,   1,1.0000
    40,'1 ',   200.000,    45.974,   268.000,  -134.000,1.05000,     0,   500.000,   0.00000,   1.00000,   0.00000,   0.00000,1.00000,1,  100.0,   450.000,     0.000,   1,1.0000
    43,'1 ',   325.000,   222.592,   300.000,  -220.000,1.05000,     0,   540.000,   0.00000,   1.00000,   0.00000,   0.00000,1.00000,1,  100.0,   486.000,     0.000,   1,1.0000
    45,'1 ',  1780.000,   450.571,   850.000,  -440.000,1.05000,     0,  1982.000,   0.00000,   1.00000,   0.00000,   0.00000,1.00000,1,  100.0,  1783.800,     0.000,   1,1.0000
    47,'1 ',   110.000,    59.555,   100.000,  -100.000,1.05000,     0,  1130.000,   0.00000,   1.00000,   0.00000,   0.00000,1.00000,1,  100.0,  1017.000,     0.000,   1,1.0000
    65,'1 ',  2900.000,  1032.214,  1500.000, -1000.000,1.00000,     0,  3085.000,   0.00000,   1.00000,   0.00000,   0.00000,1.00000,1,  100.0,  2930.800,     0.000,   1,1.0000
    70,'1 ',  1079.000,   225.703,   692.000,  -711.000,1.00000,     0,  1199.000,   0.00000,   1.00000,   0.00000,   0.00000,1.00000,1,  100.0,  1079.100,     0.000,   1,1.0000
    77,'1 ',  2698.094,  1200.721,  2649.000, -1850.000,1.00000,     0,  5421.000,   0.00000,   1.00000,   0.00000,   0.00000,1.00000,1,  100.0,  4878.900,     0.000,   1,1.0000
    79,'1 ',  9950.000,  3026.958,  5780.000, -2000.000,1.02000,     0, 13000.000,   0.00000,   1.00000,   0.00000,   0.00000,1.00000,1,  100.0, 11700.000,     0.000,   1,1.0000
   103,'1 ',  1517.000,   134.877,   330.000,  -310.000,1.00000,     0,  1685.000,   0.00000,   1.00000,   0.00000,   0.00000,1.00000,1,  100.0,  1516.500,     0.000,   1,1.0000
   112,'1 ',  1022.000,   116.913,   400.000,  -400.000,1.00000,     0,  1075.800,   0.00000,   1.00000,   0.00000,   0.00000,1.00000,1,  100.0,  1022.000,     0.000,   1,1.0000
   116,'1 ',   594.000,   164.200,   300.000,  -300.000,1.00000,     0,   895.000,   0.00000,   1.00000,   0.00000,   0.00000,1.00000,1,  100.0,   805.500,     0.000,   1,1.0000
   118,'1 ',  3467.000,  1994.614,  2500.000, -1000.000,1.03000,     0,  6840.000,   0.00000,   1.00000,   0.00000,   0.00000,1.00000,1,  100.0,  6156.000,     0.000,   1,1.0000
   138,'1 ',   982.700,    26.376,   300.000,  -300.000,1.02000,     0,  2104.000,   0.00000,   1.00000,   0.00000,   0.00000,1.00000,1,  100.0,  1893.600,     0.000,   1,1.0000
   140,'1 ',  3195.000,  1098.694,  2000.000,  -900.000,1.05000,     0,  9000.000,   0.00000,   1.00000,   0.00000,   0.00000,1.00000,1,  100.0,  8100.000,     0.000,   1,1.0000
   144,'1 ',  1690.000,   681.573,   900.000,  -400.000,1.05000,     0,  3000.000,   0.00000,   1.00000,   0.00000,   0.00000,1.00000,1,  100.0,  2700.000,     0.000,   1,1.0000
   148,'1 ',  1680.000,   561.108,   700.000,  -300.000,1.05000,     0,  1818.000,   0.00000,   1.00000,   0.00000,   0.00000,1.00000,1,  100.0,  1727.100,     0.000,   1,1.0000
   149,'1 ',  2200.000,   423.175,   600.000,  -600.000,1.02000,     0,  2500.000,   0.00000,   1.00000,   0.00000,   0.00000,1.00000,1,  100.0,  2250.000,     0.000,   1,1.0000
   159,'1 ',  1665.000,   -90.188,  9999.000, -9999.000,1.05500,     0,  2229.000,   0.00000,   1.00000,   0.00000,   0.00000,1.00000,1,  100.0,  2006.100,     0.000,   1,1.0000
   162,'1 ',   450.000,    77.137,  9999.000, -9999.000,1.00000,     0,   832.000,   0.00000,   1.00000,   0.00000,   0.00000,1.00000,1,  100.0,   748.800,     0.000,   1,1.0000
   198,'1 ',  3000.000,   767.224,  5320.000, -3500.000,1.00000,     0,  6100.000,   0.00000,   1.00000,   0.00000,   0.00000,1.00000,1,  100.0,  5490.000,     0.000,   1,1.0000
   199,'1 ',  1998.000,    50.961,   700.000,  -700.000,1.05000,     0,  2104.000,   0.00000,   1.00000,   0.00000,   0.00000,1.00000,1,  100.0,  1998.800,     0.000,   1,1.0000
0 / END OF GENERATOR DATA, BEGIN BRANCH DATA
     3,      8,'1 ',   0.00179,   0.01988,   2.57600,    0.00,    0.00,    0.00,  0.00000,  0.00000,  0.00000,  0.00000,1,   0.00,   1,1.0000
     5,    -17,'1 ',   0.00977,   0.11000,   2.00000,    0.00,    0.00,    0.00,  0.00000,  0.00000,  0.00000,  0.00000,1,   0.00,   1,1.0000
     5,    160,'1 ',   0.00811,   0.13690,   2.43480,    0.00,    0.00,    0.00,  0.00000,  0.00000,  0.00000,  0.00000,1,   0.00,   1,1.0000
     5,    190,'1 ',   0.00612,   0.08640,   1.45620,    0.00,    0.00,    0.00,  0.00000,  0.00000,  0.00000,  0.00000,1,   0.00,   1,1.0000
     5,    191,'1 ',   0.00122,   0.01728,   0.29124,    0.00,    0.00,    0.00,  0.00000,  0.00000,  0.00000,  0.00000,1,   0.00,   1,1.0000
     7,     28,'1 ',   0.00000,  -0.00408,   0.00000,    0.00,    0.00,    0.00,  0.00000,  0.00000,  0.00000,  0.00000,1,   0.00,   1,1.0000
     8,     17,'1 ',   0.00050,   0.00530,   0.08820,    0.00,    0.00,    0.00,  0.00000,  0.00000,  0.00000,  0.00000,1,   0.00,   1,1.0000
     8,   -163,'1 ',   0.00480,   0.04360,   0.70780,    0.00,    0.00,    0.00,  0.00000,  0.00000,  0.00000,  0.00000,1,   0.00,   1,1.0000
    12,     20,'1 ',   0.00000,  -0.00634,   0.00000,    0.00,    0.00,    0.00,  0.00000,  0.00000,  0.00000,  0.00000,1,   0.00,   1,1.0000
    12,     22,'1 ',   0.00000,  -0.01188,   0.00000,    0.00,    0.00,    0.00,  0.00000,  0.00000,  0.00000,  0.00000,1,   0.00,   1,1.0000
    12,    139,'1 ',   0.00280,   0.02110,   1.01940,    0.00,    0.00, 1630.00,  0.00000,  0.00000,  0.00000,  0.00000,1,   0.00,   1,1.0000
    14,    -21,'1 ',   0.00000,  -0.00634,   0.00000,    0.00,    0.00,    0.00,  0.00000,  0.00000,  0.00000,  0.00000,1,   0.00,   1,1.0000
    14,     24,'1 ',   0.00000,  -0.00826,   0.00000,    0.00,    0.00,    0.00,  0.00000,  0.00000,  0.00000,  0.00000,1,   0.00,   1,1.0000
    14,     26,'1 ',   0.00000,  -0.01795,   0.00000,    0.00,    0.00,    0.00,  0.00000,  0.00000,  0.00000,  0.00000,1,   0.00,   1,1.0000
    14,    -29,'1 ',   0.00000,  -0.00612,   0.00000,    0.00,    0.00,    0.00,  0.00000,  0.00000,  0.00000,  0.00000,1,   0.00,   1,1.0000
    16,     19,'1 ',   0.00040,   0.00960,   0.90380,    0.00,    0.00,    0.00,  0.00000,  0.00000,  0.00000,  0.00000,1,   0.00,   1,1.0000
    16,     19,'2 ',   0.00040,   0.00960,   0.90380,    0.00,    0.00,    0.00,  0.00000,  0.00000,  0.00000,  0.00000,1,   0.00,   1,1.0000
    16,    136,'1 ',   0.00259,   0.02967,   2.15300,    0.00,    0.00, 1800.00,  0.00000,  0.00000,  0.00000,  0.00000,1,   0.00,   1,1.0000
    16,    136,'2 ',   0.00259,   0.02967,   2.15300,    0.00,    0.00, 1800.00,  0.00000,  0.00000,  0.00000,  0.00000,1,   0.00,   1,1.0000
    17,    192,'1 ',   0.00061,   0.00864,   0.14562,    0.00,    0.00,    0.00,  0.00000,  0.00000,  0.00000,  0.00000,1,   0.00,   1,1.0000
    19,    -23,'1 ',   0.00000,  -0.01188,   0.00000,    0.00,    0.00,    0.00,  0.00000,  0.00000,  0.00000,  0.00000,1,   0.00,   1,1.0000
    19,    -25,'1 ',   0.00000,  -0.00826,   0.00000,    0.00,    0.00,    0.00,  0.00000,  0.00000,  0.00000,  0.00000,1,   0.00,   1,1.0000
    20,     21,'1 ',   0.00077,   0.01804,   1.39840,    0.00,    0.00,    0.00,  0.00000,  0.00000,  0.00000,  0.00000,1,   0.00,   1,1.0000
    22,     23,'1 ',   0.00241,   0.05865,   4.86560,    0.00,    0.00,    0.00,  0.00000,  0.00000,  0.00000,  0.00000,1,   0.00,   1,1.0000
    24,     25,'1 ',   0.00179,   0.04244,   3.39220,    0.00,    0.00,    0.00,  0.00000,  0.00000,  0.00000,  0.00000,1,   0.00,   1,1.0000
    26,     27,'1 ',   0.00207,   0.04959,   3.95160,    0.00,    0.00,    0.00,  0.00000,  0.00000,  0.00000,  0.00000,1,   0.00,   1,1.0000
    27,    139,'1 ',   0.00000,  -0.01795,   0.00000,    0.00,    0.00,    0.00,  0.00000,  0.00000,  0.00000,  0.00000,1,   0.00,   1,1.0000
    28,     29,'1 ',   0.00177,   0.04189,   3.34460,    0.00,    0.00,    0.00,  0.00000,  0.00000,  0.00000,  0.00000,1,   0.00,   1,1.0000
    31,     32,'1 ',   0.00350,   0.07000,   4.60600,    0.00,    0.00,    0.00,  0.00000,  0.00000,  0.00000,  0.00000,1,   0.00,   1,1.0000
    31,     80,'1 ',   0.00083,   0.02390,   3.30000,    0.00,    0.00,    0.00,  0.00000,  0.00000,  0.00000,  0.00000,1,   0.00,   1,1.0000
    33,     34,'1 ',   0.00200,   0.02000,   0.80000,    0.00,    0.00,    0.00,  0.00000,  0.00000,  0.00000,  0.00000,1,   0.00,   1,1.0000
    37,     38,'1 ',   0.00074,   0.01861,   1.40260,    0.00,    0.00,    0.00,  0.00000,  0.00000,  0.00000,  0.00000,1,   0.00,   1,1.0000
    37,     56,'1 ',   0.00082,   0.01668,   1.18800,    0.00,    0.00,    0.00,  0.00000,  0.00000,  0.00000,  0.00000,1,   0.00,   1,1.0000
    37,     64,'1 ',   0.00000,   0.00159,   0.12000,    0.00,    0.00,    0.00,  0.00000,  0.00000,  0.00000,  0.00000,1,   0.00,   1,1.0000
    37,     64,'2 ',   0.00000,   0.00159,   0.12000,    0.00,    0.00,    0.00,  0.00000,  0.00000,  0.00000,  0.00000,1,   0.00,   1,1.0000
    39,     46,'1 ',   0.00221,   0.03346,   0.07340,    0.00,    0.00,    0.00,  0.00000,  0.00000,  0.00000,  0.00000,1,   0.00,   1,1.0000
    39,     48,'1 ',   0.00290,   0.03800,   0.08240,    0.00,    0.00,    0.00,  0.00000,  0.00000,  0.00000,  0.00000,1,   0.00,   1,1.0000
    39,     59,'1 ',   0.00309,   0.04677,   0.10080,    0.00,    0.00,    0.00,  0.00000,  0.00000,  0.00000,  0.00000,1,   0.00,   1,1.0000
    39,     60,'1 ',   0.00226,   0.03422,   0.07510,    0.00,    0.00,    0.00,  0.00000,  0.00000,  0.00000,  0.00000,1,   0.00,   1,1.0000
    41,    -55,'1 ',   0.00047,   0.00723,   0.01620,    0.00,    0.00,    0.00,  0.00000,  0.00000,  0.00000,  0.00000,1,   0.00,   1,1.0000
    41,     58,'1 ',   0.00035,   0.00536,   0.01200,    0.00,    0.00,    0.00,  0.00000,  0.00000,  0.00000,  0.00000,1,   0.00,   1,1.0000
    42,    -50,'1 ',   0.00220,   0.03422,   0.07720,    0.00,    0.00,    0.00,  0.00000,  0.00000,  0.00000,  0.00000,1,   0.00,   1,1.0000
    42,    -50,'2 ',   0.00238,   0.03669,   0.08280,    0.00,    0.00,    0.00,  0.00000,  0.00000,  0.00000,  0.00000,1,   0.00,   1,1.0000
    42,    -57,'1 ',   0.00201,   0.03074,   0.06890,    0.00,    0.00,    0.00,  0.00000,  0.00000,  0.00000,  0.00000,1,   0.00,   1,1.0000
    42,     58,'1 ',   0.00281,   0.04296,   0.09650,    0.00,    0.00,    0.00,  0.00000,  0.00000,  0.00000,  0.00000,1,   0.00,   1,1.0000
    44,    160,'1 ',   0.00180,   0.02450,   0.43920,    0.00,    0.00,    0.00,  0.00000,  0.00000,  0.00000,  0.00000,1,   0.00,   1,1.0000
    44,    160,'2 ',   0.00180,   0.02450,   0.43920,    0.00,    0.00,    0.00,  0.00000,  0.00000,  0.00000,  0.00000,1,   0.00,   1,1.0000
    46,    -48,'1 ',   0.00029,   0.00434,   0.00950,    0.00,    0.00,    0.00,  0.00000,  0.00000,  0.00000,  0.00000,1,   0.00,   1,1.0000
    48,     55,'1 ',   0.00229,   0.01583,   0.03060,    0.00,    0.00,    0.00,  0.00000,  0.00000,  0.00000,  0.00000,1,   0.00,   1,1.0000
    48,     55,'2 ',   0.00229,   0.01583,   0.03060,    0.00,    0.00,    0.00,  0.00000,  0.00000,  0.00000,  0.00000,1,   0.00,   1,1.0000
    48,     59,'1 ',   0.00141,   0.00967,   0.01940,    0.00,    0.00,    0.00,  0.00000,  0.00000,  0.00000,  0.00000,1,   0.00,   1,1.0000
    48,     59,'2 ',   0.00141,   0.00967,   0.01940,    0.00,    0.00,    0.00,  0.00000,  0.00000,  0.00000,  0.00000,1,   0.00,   1,1.0000
    48,     59,'3 ',   0.00161,   0.00971,   0.01930,    0.00,    0.00,    0.00,  0.00000,  0.00000,  0.00000,  0.00000,1,   0.00,   1,1.0000
    48,     59,'4 ',   0.00161,   0.00971,   0.01930,    0.00,    0.00,    0.00,  0.00000,  0.00000,  0.00000,  0.00000,1,   0.00,   1,1.0000
    48,     60,'1 ',   0.00027,   0.00393,   0.00920,    0.00,    0.00,    0.00,  0.00000,  0.00000,  0.00000,  0.00000,1,   0.00,   1,1.0000
    48,     60,'2 ',   0.00027,   0.00393,   0.00920,    0.00,    0.00,    0.00,  0.00000,  0.00000,  0.00000,  0.00000,1,   0.00,   1,1.0000
    48,     60,'3 ',   0.00027,   0.00393,   0.00920,    0.00,    0.00,    0.00,  0.00000,  0.00000,  0.00000,  0.00000,1,   0.00,   1,1.0000
    48,     62,'1 ',   0.00138,   0.01116,   0.02470,    0.00,    0.00,    0.00,  0.00000,  0.00000,  0.00000,  0.00000,1,   0.00,   1,1.0000
    48,     62,'2 ',   0.00138,   0.01116,   0.02470,    0.00,    0.00,    0.00,  0.00000,  0.00000,  0.00000,  0.00000,1,   0.00,   1,1.0000
    49,    -64,'1 ',   0.00083,   0.01884,   1.66670,    0.00,    0.00,    0.00,  0.00000,  0.00000,  0.00000,  0.00000,1,   0.00,   1,1.0000
    50,     57,'1 ',   0.00037,   0.00366,   0.00830,    0.00,    0.00,    0.00,  0.00000,  0.00000,  0.00000,  0.00000,1,   0.00,   1,1.0000
    50,     58,'1 ',   0.00055,   0.00586,   0.01250,    0.00,    0.00,    0.00,  0.00000,  0.00000,  0.00000,  0.00000,1,   0.00,   1,1.0000
    52,     63,'1 ',   0.01070,   0.07905,   0.36670,    0.00,    0.00,    0.00,  0.00000,  0.00000,  0.00000,  0.00000,1,   0.00,   1,1.0000
    53,     63,'1 ',   0.01070,   0.07905,   0.36670,    0.00,    0.00,    0.00,  0.00000,  0.00000,  0.00000,  0.00000,1,   0.00,   1,1.0000
    54,    -57,'1 ',   0.00073,   0.01025,   0.02560,    0.00,    0.00,    0.00,  0.00000,  0.00000,  0.00000,  0.00000,1,   0.00,   1,1.0000
    54,    -57,'2 ',   0.00073,   0.01025,   0.02560,    0.00,    0.00,    0.00,  0.00000,  0.00000,  0.00000,  0.00000,1,   0.00,   1,1.0000
    55,     58,'1 ',   0.00119,   0.01244,   0.02800,    0.00,    0.00,    0.00,  0.00000,  0.00000,  0.00000,  0.00000,1,   0.00,   1,1.0000
    55,     58,'2 ',   0.00119,   0.01244,   0.02800,    0.00,    0.00,    0.00,  0.00000,  0.00000,  0.00000,  0.00000,1,   0.00,   1,1.0000
    55,    -62,'1 ',   0.00128,   0.00979,   0.02120,    0.00,    0.00,    0.00,  0.00000,  0.00000,  0.00000,  0.00000,1,   0.00,   1,1.0000
    57,     58,'1 ',   0.00110,   0.01189,   0.02510,    0.00,    0.00,    0.00,  0.00000,  0.00000,  0.00000,  0.00000,1,   0.00,   1,1.0000
    61,   -137,'1 ',   0.00140,   0.02640,   0.10200,    0.00,    0.00, 3070.00,  0.00000,  0.00000,  0.00000,  0.00000,1,   0.00,   1,1.0000
    61,   -150,'1 ',   0.00065,   0.01187,   0.04670,    0.00,    0.00, 3070.00,  0.00000,  0.00000,  0.00000,  0.00000,1,   0.00,   1,1.0000
    61,   -150,'2 ',   0.00065,   0.01187,   0.04670,    0.00,    0.00, 3070.00,  0.00000,  0.00000,  0.00000,  0.00000,1,   0.00,   1,1.0000
    64,   -139,'1 ',   0.00179,   0.02524,   0.53550,    0.00,    0.00,    0.00,  0.00000,  0.00000,  0.00000,  0.00000,1,   0.00,   1,1.0000
    64,   -139,'2 ',   0.00179,   0.02524,   0.53550,    0.00,    0.00,    0.00,  0.00000,  0.00000,  0.00000,  0.00000,1,   0.00,   1,1.0000
    64,   -142,'1 ',   0.00020,   0.00410,   0.29620,    0.00,    0.00,    0.00,  0.00000,  0.00000,  0.00000,  0.00000,1,   0.00,   1,1.0000
    66,    -78,'1 ',   0.00070,   0.07400,   4.87000,    0.00,    0.00,    0.00,  0.00000,  0.00000,  0.00000,  0.00000,1,   0.00,   1,1.0000
    68,     71,'1 ',   0.00006,   0.00131,   0.00380,    0.00,    0.00, 3020.00,  0.00000,  0.00000,  0.00000,  0.00000,1,   0.00,   1,1.0000
    68,     71,'2 ',   0.00006,   0.00116,   0.00330,    0.00,    0.00, 3020.00,  0.00000,  0.00000,  0.00000,  0.00000,1,   0.00,   1,1.0000
    69,     72,'1 ',   0.00001,   0.00030,   0.01430,    0.00,    0.00, 3450.00,  0.00000,  0.00000,  0.00000,  0.00000,1,   0.00,   1,1.0000
    69,     72,'2 ',   0.00001,   0.00030,   0.01840,    0.00,    0.00, 3450.00,  0.00000,  0.00000,  0.00000,  0.00000,1,   0.00,   1,1.0000
    69,     76,'1 ',   0.00023,   0.00451,   0.33320,    0.00,    0.00, 2175.00,  0.00000,  0.00000,  0.00000,  0.00000,1,   0.00,   1,1.0000
    69,     76,'2 ',   0.00020,   0.00446,   0.30500,    0.00,    0.00, 2175.00,  0.00000,  0.00000,  0.00000,  0.00000,1,   0.00,   1,1.0000
    72,    197,'1 ',   0.00191,   0.02191,   1.59000,    0.00,    0.00,    0.00,  0.00000,  0.00000,  0.00000,  0.00000,1,   0.00,   1,1.0000
    72,    197,'2 ',   0.00191,   0.02191,   1.59000,    0.00,    0.00,    0.00,  0.00000,  0.00000,  0.00000,  0.00000,1,   0.00,   1,1.0000
    73,   -183,'1 ',   0.00054,   0.00422,   1.10400,    0.00,    0.00,    0.00,  0.00000,  0.00000,  0.00000,  0.00000,1,   0.00,   1,1.0000
    74,    -78,'1 ',   0.00113,   0.02069,   1.85530,    0.00,    0.00,    0.00,  0.00000,  0.00000,  0.00000,  0.00000,1,   0.00,   1,1.0000
    75,     78,'1 ',   0.00142,   0.02258,   1.88000,    0.00,    0.00,    0.00,  0.00000,  0.00000,  0.00000,  0.00000,1,   0.00,   1,1.0000
    75,    182,'1 ',   0.00196,   0.03304,   1.88000,    0.00,    0.00,    0.00,  0.00000,  0.00000,  0.00000,  0.00000,1,   0.00,   1,1.0000
    75,   -183,'1 ',   0.00125,   0.00984,   2.57600,    0.00,    0.00,    0.00,  0.00000,  0.00000,  0.00000,  0.00000,1,   0.00,   1,1.0000
    76,    -78,'1 ',   0.00120,   0.02316,   1.71520,    0.00,    0.00,    0.00,  0.00000,  0.00000,  0.00000,  0.00000,1,   0.00,   1,1.0000
    76,    -78,'2 ',   0.00030,   0.02000,   3.60000,    0.00,    0.00,    0.00,  0.00000,  0.00000,  0.00000,  0.00000,1,   0.00,   1,1.0000
    76,    -82,'1 ',   0.00063,   0.01412,   1.09760,    0.00,    0.00, 3450.00,  0.00000,  0.00000,  0.00000,  0.00000,1,   0.00,   1,1.0000
    76,    -82,'2 ',   0.00109,   0.02408,   1.55540,    0.00,    0.00, 3020.00,  0.00000,  0.00000,  0.00000,  0.00000,1,   0.00,   1,1.0000
    76,    -82,'3 ',   0.00108,   0.02409,   1.55350,    0.00,    0.00, 3020.00,  0.00000,  0.00000,  0.00000,  0.00000,1,   0.00,   1,1.0000
    76,    181,'1 ',   0.00048,   0.00548,   0.39750,    0.00,    0.00,    0.00,  0.00000,  0.00000,  0.00000,  0.00000,1,   0.00,   1,1.0000
    78,    -80,'1 ',   0.00020,   0.00820,   1.30000,    0.00,    0.00,    0.00,  0.00000,  0.00000,  0.00000,  0.00000,1,   0.00,   1,1.0000
    78,    -80,'2 ',   0.00020,   0.00820,   1.30000,    0.00,    0.00,    0.00,  0.00000,  0.00000,  0.00000,  0.00000,1,   0.00,   1,1.0000
    78,    182,'1 ',   0.00016,   0.00183,   0.13250,    0.00,    0.00,    0.00,  0.00000,  0.00000,  0.00000,  0.00000,1,   0.00,   1,1.0000
    78,    196,'1 ',   0.00215,   0.02465,   1.78875,    0.00,    0.00,    0.00,  0.00000,  0.00000,  0.00000,  0.00000,1,   0.00,   1,1.0000
    78,    196,'2 ',   0.00215,   0.02465,   1.78875,    0.00,    0.00,    0.00,  0.00000,  0.00000,  0.00000,  0.00000,1,   0.00,   1,1.0000
    78,    196,'3 ',   0.00215,   0.02465,   1.78875,    0.00,    0.00,    0.00,  0.00000,  0.00000,  0.00000,  0.00000,1,   0.00,   1,1.0000
    81,     99,'1 ',   0.00264,   0.05356,   5.29070,    0.00,    0.00, 3600.00,  0.00000,  0.00000,  0.00000,  0.00000,1,   0.00,   1,1.0000
    81,    180,'1 ',   0.00000,  -0.02667,   0.00000,    0.00,    0.00, 1732.00,  0.00000,  0.00000,  0.00000,  0.00000,1,   0.00,   1,1.0000
    82,     87,'1 ',   0.00041,   0.00737,   0.72690,    0.00,    0.00, 3450.00,  0.00000,  0.00000,  0.00000,  0.00000,1,   0.00,   1,1.0000
    82,     91,'1 ',   0.00066,   0.01266,   0.95980,    0.00,    0.00, 3020.00,  0.00000,  0.00000,  0.00000,  0.00000,1,   0.00,   1,1.0000
    82,     95,'1 ',   0.00066,   0.01266,   0.95980,    0.00,    0.00, 3020.00,  0.00000,  0.00000,  0.00000,  0.00000,1,   0.00,   1,1.0000
    83,     89,'1 ',   0.00072,   0.01382,   1.27570,    0.00,    0.00, 3600.00,  0.00000,  0.00000,  0.00000,  0.00000,1,   0.00,   1,1.0000
    83,    -94,'1 ',   0.00078,   0.01502,   1.13810,    0.00,    0.00, 3020.00,  0.00000,  0.00000,  0.00000,  0.00000,1,   0.00,   1,1.0000
    83,    -98,'1 ',   0.00074,   0.01413,   1.06630,    0.00,    0.00, 3020.00,  0.00000,  0.00000,  0.00000,  0.00000,1,   0.00,   1,1.0000
    83,    168,'1 ',   0.00000,  -0.00720,   0.00000,    0.00,    0.00, 1800.00,  0.00000,  0.00000,  0.00000,  0.00000,1,   0.00,   1,1.0000
    83,    170,'1 ',   0.00000,  -0.00864,   0.00000,    0.00,    0.00, 1800.00,  0.00000,  0.00000,  0.00000,  0.00000,1,   0.00,   1,1.0000
    83,    172,'1 ',   0.00000,  -0.01000,   0.00000,    0.00,    0.00,    0.00,  0.00000,  0.00000,  0.00000,  0.00000,1,   0.00,   1,1.0000
    84,    -99,'1 ',   0.00000,  -0.02667,   0.00000,    0.00,    0.00, 1732.00,  0.00000,  0.00000,  0.00000,  0.00000,1,   0.00,   1,1.0000
    85,   -156,'1 ',   0.00620,   0.06730,   1.11560,    0.00,    0.00,    0.00,  0.00000,  0.00000,  0.00000,  0.00000,1,   0.00,   1,1.0000
    85,    186,'1 ',   0.01102,   0.15552,   2.62116,    0.00,    0.00,    0.00,  0.00000,  0.00000,  0.00000,  0.00000,1,   0.00,   1,1.0000
    85,    186,'2 ',   0.01102,   0.15552,   2.62116,    0.00,    0.00,    0.00,  0.00000,  0.00000,  0.00000,  0.00000,1,   0.00,   1,1.0000
    85,    186,'3 ',   0.01102,   0.15552,   2.62116,    0.00,    0.00,    0.00,  0.00000,  0.00000,  0.00000,  0.00000,1,   0.00,   1,1.0000
    86,    -88,'1 ',   0.00060,   0.01036,   1.01460,    0.00,    0.00, 3450.00,  0.00000,  0.00000,  0.00000,  0.00000,1,   0.00,   1,1.0000
    86,    -90,'1 ',   0.00012,   0.00238,   0.21930,    0.00,    0.00, 3600.00,  0.00000,  0.00000,  0.00000,  0.00000,1,   0.00,   1,1.0000
    86,   -180,'1 ',   0.00122,   0.02373,   2.20710,    0.00,    0.00, 3600.00,  0.00000,  0.00000,  0.00000,  0.00000,0,   0.00,   1,1.0000
    86,   -201,'1 ',   0.00061,   0.01187,   1.10355,    0.00,    0.00, 3600.00,  0.00000,  0.00000,  0.00000,  0.00000,1,   0.00,   1,1.0000
    87,     88,'1 ',   0.00000,  -0.01263,   0.00000,    0.00,    0.00, 2000.00,  0.00000,  0.00000,  0.00000,  0.00000,1,   0.00,   1,1.0000
    89,     90,'1 ',   0.00000,  -0.00858,   0.00000,    0.00,    0.00, 2000.00,  0.00000,  0.00000,  0.00000,  0.00000,1,   0.00,   1,1.0000
    91,     92,'1 ',   0.00000,  -0.01263,   0.00000,    0.00,    0.00, 2400.00,  0.00000,  0.00000,  0.00000,  0.00000,1,   0.00,   1,1.0000
    92,     93,'1 ',   0.00074,   0.01428,   1.08220,    0.00,    0.00, 3020.00,  0.00000,  0.00000,  0.00000,  0.00000,1,   0.00,   1,1.0000
    93,     94,'1 ',   0.00000,  -0.01263,   0.00000,    0.00,    0.00, 2400.00,  0.00000,  0.00000,  0.00000,  0.00000,1,   0.00,   1,1.0000
    95,     96,'1 ',   0.00000,  -0.01263,   0.00000,    0.00,    0.00, 2000.00,  0.00000,  0.00000,  0.00000,  0.00000,1,   0.00,   1,1.0000
    96,     97,'1 ',   0.00074,   0.01428,   1.08220,    0.00,    0.00, 3020.00,  0.00000,  0.00000,  0.00000,  0.00000,1,   0.00,   1,1.0000
    97,     98,'1 ',   0.00000,  -0.01263,   0.00000,    0.00,    0.00, 2000.00,  0.00000,  0.00000,  0.00000,  0.00000,1,   0.00,   1,1.0000
   100,   -101,'1 ',   0.02482,   0.16938,   0.20230,    0.00,    0.00,  838.00,  0.00000,  0.00000,  0.00000,  0.00000,1,   0.00,   1,1.0000
   100,    117,'1 ',   0.01480,   0.10101,   0.12070,    0.00,    0.00,  838.00,  0.00000,  0.00000,  0.00000,  0.00000,1,   0.00,   1,1.0000
   101,    105,'1 ',   0.01382,   0.09268,   0.11060,    0.00,    0.00,  747.00,  0.00000,  0.00000,  0.00000,  0.00000,1,   0.00,   1,1.0000
   101,    106,'1 ',   0.01668,   0.11381,   0.13610,    0.00,    0.00,  838.00,  0.00000,  0.00000,  0.00000,  0.00000,1,   0.00,   1,1.0000
   101,    113,'1 ',   0.01113,   0.06678,   0.07290,    0.00,    0.00,  752.00,  0.00000,  0.00000,  0.00000,  0.00000,1,   0.00,   1,1.0000
   101,    113,'2 ',   0.01050,   0.06540,   0.06860,    0.00,    0.00,  602.00,  0.00000,  0.00000,  0.00000,  0.00000,1,   0.00,   1,1.0000
   101,    113,'3 ',   0.01105,   0.06642,   0.07160,    0.00,    0.00,  752.00,  0.00000,  0.00000,  0.00000,  0.00000,1,   0.00,   1,1.0000
   101,    117,'1 ',   0.03903,   0.27403,   0.31070,    0.00,    0.00,  747.00,  0.00000,  0.00000,  0.00000,  0.00000,1,   0.00,   1,1.0000
   102,   -104,'1 ',   0.00079,   0.01937,   1.32850,    0.00,    0.00,    0.00,  0.00000,  0.00000,  0.00000,  0.00000,1,   0.00,   1,1.0000
   102,    108,'1 ',   0.00087,   0.02087,   1.45710,    0.00,    0.00,    0.00,  0.00000,  0.00000,  0.00000,  0.00000,1,   0.00,   1,1.0000
   102,    108,'2 ',   0.00087,   0.02087,   1.45710,    0.00,    0.00,    0.00,  0.00000,  0.00000,  0.00000,  0.00000,1,   0.00,   1,1.0000
   104,   -107,'1 ',   0.00083,   0.01985,   0.00000,    0.00,    0.00, 2450.00,  0.00000,  0.00000,  0.00000,  0.00000,1,   0.00,   1,1.0000
   104,   -134,'1 ',   0.00093,   0.03644,   1.38950,    0.00,    0.00, 2450.00,  0.00000,  0.00000,  0.00000,  0.00000,1,   0.00,   1,1.0000
   104,    135,'1 ',   0.00072,   0.01600,   1.08790,    0.00,    0.00, 2450.00,  0.00000,  0.00000,  0.00000,  0.00000,1,   0.00,   1,1.0000
   105,    117,'1 ',   0.03058,   0.20460,   0.24470,    0.00,    0.00,  747.00,  0.00000,  0.00000,  0.00000,  0.00000,1,   0.00,   1,1.0000
   106,    117,'1 ',   0.02235,   0.16106,   0.18340,    0.00,    0.00,  838.00,  0.00000,  0.00000,  0.00000,  0.00000,1,   0.00,   1,1.0000
   107,    108,'1 ',   0.00153,   0.01470,   0.00000,    0.00,    0.00, 1560.00,  0.00000,  0.00000,  0.00000,  0.00000,1,   0.00,   1,1.0000
   107,   -110,'1 ',   0.00053,   0.01297,   0.00000,    0.00,    0.00, 2450.00,  0.00000,  0.00000,  0.00000,  0.00000,1,   0.00,   1,1.0000
   108,   -133,'1 ',   0.00002,  -0.01331,   0.00000,    0.00,    0.00, 1800.00,  0.00000,  0.00000,  0.00000,  0.00000,1,   0.00,   1,1.0000
   108,   -135,'1 ',   0.00002,  -0.00998,   0.00000,    0.00,    0.00, 2450.00,  0.00000,  0.00000,  0.00000,  0.00000,1,   0.00,   1,1.0000
   108,    174,'1 ',   0.00000,  -0.00935,   0.00000,    0.00,    0.00, 2134.00,  0.00000,  0.00000,  0.00000,  0.00000,1,   0.00,   1,1.0000
   108,    176,'1 ',   0.00000,  -0.00944,   0.00000,    0.00,    0.00, 2134.00,  0.00000,  0.00000,  0.00000,  0.00000,1,   0.00,   1,1.0000
   108,    178,'1 ',   0.00000,  -0.00935,   0.00000,    0.00,    0.00, 2134.00,  0.00000,  0.00000,  0.00000,  0.00000,1,   0.00,   1,1.0000
   111,    120,'1 ',   0.00000,  -0.01000,   0.00000,    0.00,    0.00, 2667.00,  0.00000,  0.00000,  0.00000,  0.00000,1,   0.00,   1,1.0000
   111,   -173,'1 ',   0.00000,  -0.01000,   0.00000,    0.00,    0.00,    0.00,  0.00000,  0.00000,  0.00000,  0.00000,1,   0.00,   1,1.0000
   114,    124,'1 ',   0.00002,  -0.00998,   0.00000,    0.00,    0.00, 1800.00,  0.00000,  0.00000,  0.00000,  0.00000,1,   0.00,   1,1.0000
   114,    126,'1 ',   0.00002,  -0.00998,   0.00000,    0.00,    0.00, 1800.00,  0.00000,  0.00000,  0.00000,  0.00000,1,   0.00,   1,1.0000
   114,   -169,'1 ',   0.00000,  -0.00720,   0.00000,    0.00,    0.00, 1800.00,  0.00000,  0.00000,  0.00000,  0.00000,1,   0.00,   1,1.0000
   114,   -171,'1 ',   0.00000,  -0.00720,   0.00000,    0.00,    0.00, 1800.00,  0.00000,  0.00000,  0.00000,  0.00000,1,   0.00,   1,1.0000
   115,   -125,'1 ',   0.00001,  -0.00666,   0.00000,    0.00,    0.00, 1800.00,  0.00000,  0.00000,  0.00000,  0.00000,1,   0.00,   1,1.0000
   115,   -127,'1 ',   0.00001,  -0.00666,   0.00000,    0.00,    0.00, 1800.00,  0.00000,  0.00000,  0.00000,  0.00000,1,   0.00,   1,1.0000
   115,    128,'1 ',   0.00001,  -0.01120,   0.00000,    0.00,    0.00, 2667.00,  0.00000,  0.00000,  0.00000,  0.00000,1,   0.00,   1,1.0000
   115,    130,'1 ',   0.00001,  -0.00720,   0.00000,    0.00,    0.00, 2667.00,  0.00000,  0.00000,  0.00000,  0.00000,1,   0.00,   1,1.0000
   119,   -123,'1 ',   0.00000,  -0.01000,   0.00000,    0.00,    0.00, 2667.00,  0.00000,  0.00000,  0.00000,  0.00000,1,   0.00,   1,1.0000
   119,   -129,'1 ',   0.00001,  -0.01120,   0.00000,    0.00,    0.00, 2667.00,  0.00000,  0.00000,  0.00000,  0.00000,1,   0.00,   1,1.0000
   119,   -131,'1 ',   0.00001,  -0.00360,   0.00000,    0.00,    0.00, 2667.00,  0.00000,  0.00000,  0.00000,  0.00000,1,   0.00,   1,1.0000
   119,    132,'1 ',   0.00001,  -0.00755,   0.00000,    0.00,    0.00,    0.00,  0.00000,  0.00000,  0.00000,  0.00000,1,   0.00,   1,1.0000
   119,    134,'1 ',   0.00001,  -0.01098,   0.00000,    0.00,    0.00, 2450.00,  0.00000,  0.00000,  0.00000,  0.00000,1,   0.00,   1,1.0000
   120,    121,'1 ',   0.00076,   0.01952,   1.82450,    0.00,    0.00, 2894.00,  0.00000,  0.00000,  0.00000,  0.00000,1,   0.00,   1,1.0000
   121,    122,'1 ',   0.00000,  -0.01000,   0.00000,    0.00,    0.00, 2667.00,  0.00000,  0.00000,  0.00000,  0.00000,1,   0.00,   1,1.0000
   122,    123,'1 ',   0.00082,   0.02119,   1.98420,    0.00,    0.00, 2894.00,  0.00000,  0.00000,  0.00000,  0.00000,1,   0.00,   1,1.0000
   124,    125,'1 ',   0.00140,   0.02338,   1.47500,    0.00,    0.00, 2396.00,  0.00000,  0.00000,  0.00000,  0.00000,1,   0.00,   1,1.0000
   126,    127,'1 ',   0.00140,   0.02338,   1.47500,    0.00,    0.00, 2396.00,  0.00000,  0.00000,  0.00000,  0.00000,1,   0.00,   1,1.0000
   128,    129,'1 ',   0.00154,   0.03409,   2.31140,    0.00,    0.00, 2450.00,  0.00000,  0.00000,  0.00000,  0.00000,1,   0.00,   1,1.0000
   130,    131,'1 ',   0.00095,   0.02102,   1.42520,    0.00,    0.00, 2450.00,  0.00000,  0.00000,  0.00000,  0.00000,1,   0.00,   1,1.0000
   132,    133,'1 ',   0.00165,   0.05719,   2.47740,    0.00,    0.00, 2450.00,  0.00000,  0.00000,  0.00000,  0.00000,1,   0.00,   1,1.0000
   136,    152,'1 ',   0.00042,   0.00905,   0.66790,    0.00,    0.00, 3600.00,  0.00000,  0.00000,  0.00000,  0.00000,1,   0.00,   1,1.0000
   137,    143,'1 ',   0.00190,   0.02580,   0.09840,    0.00,    0.00, 2320.00,  0.00000,  0.00000,  0.00000,  0.00000,1,   0.00,   1,1.0000
   137,    150,'1 ',   0.00845,   0.07034,   0.15950,    0.00,    0.00, 1160.00,  0.00000,  0.00000,  0.00000,  0.00000,1,   0.00,   1,1.0000
   139,    142,'1 ',   0.00193,   0.02779,   4.67120,    0.00,    0.00, 3600.00,  0.00000,  0.00000,  0.00000,  0.00000,1,   0.00,   1,1.0000
   139,   -147,'1 ',   0.00056,   0.01415,   1.04290,    0.00,    0.00, 3600.00,  0.00000,  0.00000,  0.00000,  0.00000,1,   0.00,   1,1.0000
   141,    143,'1 ',   0.00110,   0.01270,   0.04800,    0.00,    0.00, 2320.00,  0.00000,  0.00000,  0.00000,  0.00000,1,   0.00,   1,1.0000
   142,    145,'1 ',   0.00028,   0.00753,   0.51740,    0.00,    0.00, 3600.00,  0.00000,  0.00000,  0.00000,  0.00000,1,   0.00,   1,1.0000
   142,    145,'2 ',   0.00035,   0.00750,   0.55360,    0.00,    0.00, 3600.00,  0.00000,  0.00000,  0.00000,  0.00000,1,   0.00,   1,1.0000
   142,    147,'1 ',   0.00190,   0.03100,   4.14020,    0.00,    0.00, 3600.00,  0.00000,  0.00000,  0.00000,  0.00000,1,   0.00,   1,1.0000
   142,    151,'1 ',   0.00060,   0.01280,   0.94620,    0.00,    0.00, 3600.00,  0.00000,  0.00000,  0.00000,  0.00000,1,   0.00,   1,1.0000
   142,    153,'1 ',   0.00044,   0.01125,   0.82920,    0.00,    0.00, 3600.00,  0.00000,  0.00000,  0.00000,  0.00000,1,   0.00,   1,1.0000
   142,    153,'2 ',   0.00044,   0.01125,   0.82920,    0.00,    0.00, 3600.00,  0.00000,  0.00000,  0.00000,  0.00000,1,   0.00,   1,1.0000
   143,   -146,'1 ',   0.00138,   0.05399,   0.15250,    0.00,    0.00, 2320.00,  0.00000,  0.00000,  0.00000,  0.00000,1,   0.00,   1,1.0000
   143,   -154,'1 ',   0.00320,   0.03950,   0.14400,    0.00,    0.00, 2320.00,  0.00000,  0.00000,  0.00000,  0.00000,1,   0.00,   1,1.0000
...